gridcapa-cse-valid-app/src/test/resources/20211125_1930_2D4_CO_Final_CSE1.uct
##C 2007.05.01
Generated by Convergence, RTE's network analysis tool (2021.11.23 22:53)
Informations      : 20211125_1930_2D4_CO_Final_CSE1.uct
Date of situation : 2021/11/25 19:30
##N
##ZME
0ANDRI51 Andrijevica  0 0        3.82576 0.00000 0.00000 0.00000 
0BAR  51 Bar          0 0        24.9144 3.23148 0.00000 0.00000 
0BERAN51 Berane       0 0        15.5115 1.77996 0.00000 0.00000 
0BPOLJ51 Bijelo Polje 0 0        15.5532 3.51754 0.00000 0.00000 
0BREZN51 TS Brezna    0 0        0.46910 0.00000 0.00000 0.00000 
0BUDVA51 Budva        0 0        28.1354 2.46864 0.00000 0.00000 
0CETIN51 Cetinje      0 0        9.29856 1.46211 0.00000 0.00000 
0DANIL51 Danilovgrad  0 0        10.8205 3.60230 0.00000 0.00000 
0ETREB51 EVP Trebjes. 0 0        3.47133 1.53628 0.00000 0.00000 
0HNOVI51 Herceg Novi  0 0        24.6016 2.61697 0.00000 0.00000 
0HPERU21 Perucica     0 0        0.00000 0.00000 0.00000 0.00000 
0HPERU51 HPP Perucica 0 2 114.00 0.00000 0.00000 -50.060 14.0000 1.00000 -210.00 14.0000 -77.000 
0HPERU52 HPP Perucica 0 2 114.00 0.00000 0.00000 -23.028 6.00000 1.00000 -96.000 6.00000 -39.000 
0HPIVA21 HPP Piva     0 2 239.00 0.00000 0.00000 -68.081 4.00000 -68.000 -114.00 4.00000 -37.000 
0HPIVA22 HPP Piva     0 2 239.00 0.00000 0.00000 -136.16 8.00000 -70.000 -228.00 8.00000 -74.000 
0KAP  51 KAP          0 0        65.4193 44.8300 0.00000 0.00000 
0KAP  5T KAP          0 0        0.00000 0.00000 0.00000 0.00000 
0KOTOR51 Kotor        0 0        14.6463 1.82234 0.00000 0.00000 
0KRNOV51 VE Krnovo    0 2 115.00 0.00000 0.63000 -4.6335 0.00000 0.00000 -72.000 0.00000 -34.000 
0LASTV11 Lastva       0 0        0.00000 0.00000 0.00000 0.00000 
0LASTV51 Lastva       0 0        0.43782 0.04238 0.00000 0.00000 
0MOJKO21 Mojkovac     0 0        0.00000 0.00000 0.00000 0.00000 
0MOJKO51 Mojkovac     0 0        6.64034 0.99593 0.00000 0.00000 
0MOZUR51 VE Mozura    0 2 108.00 0.00000 5.07000 -28.459 0.00000 0.00000 -48.000 0.00000 -15.000 
0NIKS251 Niksic2-Klic 0 0        9.22559 2.32031 0.00000 0.00000 
0NIKSI51 Niksic       0 0        24.7371 6.30403 0.00000 0.00000 
0NIKSZ52 Niksic Zelj. 0 0        0.38372 0.62000 0.00000 0.00000 
0PLJE211 Pljevlja 2   0 0        0.00000 0.00000 0.00000 0.00000 
0PLJE251 Pljevlja 2   0 0        0.00000 0.00000 0.00000 0.00000 
0PLJEV51 Pljevlja 1   0 0        17.6380 4.24860 0.00000 0.00000 
0PODG121 Podgorica 1  0 0        0.00000 0.00000 0.00000 0.00000 
0PODG151 Podgorica 1  0 0        16.5852 4.38633 0.00000 0.00000 
0PODG211 Podgorica 2  0 0        0.00000 0.00000 0.00000 0.00000 
0PODG212 Podgorica 2  0 0        0.00000 0.00000 0.00000 0.00000 
0PODG251 Podgorica 2  0 0        0.00000 0.00000 0.00000 0.00000 
0PODG252 Podgorica 2  0 0        0.00000 0.00000 0.00000 0.00000 
0PODG351 Podgorica 3  0 0        31.7319 2.56399 0.00000 0.00000 
0PODG451 Podgorica 4  0 0        41.2493 3.14672 0.00000 0.00000 
0PODG551 Podgorica 5  0 0        24.0595 2.39447 0.00000 0.00000 
0RIBAR11 Ribarevine   0 0        0.00000 0.00000 0.00000 0.00000 
0ROZAJ51 Rozaje       0 0        0.00000 0.00000 0.00000 0.00000 
0TIVAT51 Tivat        0 0        19.7959 1.66342 0.00000 0.00000 
0TPLJE21 TPP Pljevlja 0 2 237.00 1.05277 12.2700 -207.65 -15.090 -160.00 -225.00 10.0000 -109.00 
0ULCIN51 Ulcinj       0 0        12.7699 1.87532 0.00000 0.00000 
0VILUS51 Vilusi       0 0        0.91735 0.42380 0.00000 0.00000 
0VILUS5K Vilusi KT    0 0        0.00000 0.00000 0.00000 0.00000 
0VIRPA51 Virpazar     0 0        6.67161 1.73758 0.00000 0.00000 
0VRANI5K Vranici KT   0 0        0.00000 0.00000 0.00000 0.00000 
##ZAL
AAES  5  AES          0 0        36.6881 0.00000 0.00000 0.00000 
AARSTI5  HPP ARSTI    0 0        0.00000 0.00000 0.00000 0.00000 0.00000 -100.00 100.000 -100.00 
AASHT15  HPP ASHTA 1  0 2 115.00 0.00000 0.00000 -20.441 -68.429 0.00000 -50.000 5.00000 -82.381 
AASHT25  HPP ASHTA 2  0 0        0.00000 0.00000 0.00000 0.00000 0.00000 -50.000 5.00000 -10.000 
ABABIC2  BABIC        0 0        0.00000 0.00000 0.00000 0.00000 
ABABIC5  BABIC        0 0        14.6752 6.61217 0.00000 0.00000 
ABALSH5  BALSH        0 0        25.6816 3.30609 0.00000 0.00000 
ABANJE5  HPP BANJE    0 2 115.00 1.83440 0.00000 -4.1783 -63.752 0.00000 -70.000 5.00000 -64.057 
ABCURR5  B CURRI      0 0        7.33760 3.30609 0.00000 0.00000 
ABELE 5  HPP BELE     0 2 115.00 0.00000 0.00000 -0.2481 -8.9635 0.00000 -16.000 5.00000 -10.000 
ABELSH5  BELSH        0 0        9.17200 0.00000 0.00000 0.00000 
ABERAT5  BERAT        0 0        7.33760 0.00000 0.00000 0.00000 
ABISHN5  HPP Bishnice 0 2 115.00 0.00000 0.00000 -0.1950 2.25388 0.00000 -8.0000 5.00000 -10.000 
ABISTR3  BISTRRIC     0 0        0.00000 0.00000 0.00000 0.00000 
ABISTR5  HPP BISTRIC  0 2 115.00 5.50321 0.00000 -16.935 -10.000 0.00000 -27.000 5.00000 -10.000 
ABULQI5  BULQIZ       0 0        5.50321 1.65304 0.00000 0.00000 
ABURRE2  BURREL       0 0        0.00000 0.00000 0.00000 0.00000 
ABURRL5  BURREL       0 0        33.0193 6.61217 0.00000 0.00000 
ABUSHA5  BUSHAT       0 0        5.50321 0.00000 0.00000 0.00000 
ACEMER5  HPP Cemerica 0 0        0.00000 0.00000 0.00000 0.00000 0.00000 -12.000 5.00000 -10.000 
ACERIK5  CERRIK       0 0        1.83440 1.65304 0.00000 0.00000 
ACERRU5  HPP CERRU    0 0        0.00000 0.00000 0.00000 0.00000 0.00000 -70.000 5.00000 -10.000 
ACOROV5  COROVODE     0 0        0.00000 0.00000 0.00000 0.00000 
ADARDA5  HPP DARDHA   0 0        0.00000 0.00000 0.00000 0.00000 0.00000 -8.0000 5.00000 -10.000 
ADARSI5  HPP Darsi    0 0        0.00000 0.00000 0.00000 0.00000 0.00000 -8.0000 5.00000 -10.000 
ADEGSK5  DEG SK       0 0        0.00000 0.00000 0.00000 0.00000 
ADENAS5  HPP DENAS    0 0        0.00000 0.00000 0.00000 0.00000 0.00000 -8.0000 5.00000 -10.000 
ADGSHU5  DEG SHU      0 0        0.00000 0.00000 0.00000 0.00000 
ADRAGO5  HPP DRAGBI   0 0        0.00000 0.00000 0.00000 0.00000 0.00000 -8.0000 5.00000 -10.000 
ADRENO5  DRENOVE      0 0        1.83440 0.00000 0.00000 0.00000 
ADSHK25  DEG SHK      0 0        0.00000 0.00000 0.00000 0.00000 
AEGNAT5  HPP EGNATIA  0 0        0.00000 0.00000 0.00000 0.00000 0.00000 -8.0000 5.00000 -10.000 
AELBS12  ELBASAN 1    0 0        0.00000 0.00000 0.00000 0.00000 
AELBS15  ELBASAN 1    0 0        11.0064 3.30609 0.00000 0.00000 
AELBS21  ELBASAN 2    0 0        0.00000 0.00000 0.00000 0.00000 
AELBS22  ELBASAN 2    0 0        0.00000 0.00000 0.00000 0.00000 
AELKOM5  ELKOM        0 0        16.5096 8.26521 0.00000 0.00000 
AELKUR2  ELKURUM      0 0        14.6752 0.00000 0.00000 0.00000 
AERSEK5  ERSEK        0 0        16.5096 0.00000 0.00000 0.00000 
AFANG 2  HPP FANG     0 2 225.00 0.00000 0.00000 -24.367 4.46948 0.00000 -70.000 5.00000 -17.000 
AFARKA5  FARKA        0 0        12.8408 1.65304 0.00000 0.00000 
AFARRZ5  FUSH ARREZ   0 0        5.50321 3.30609 0.00000 0.00000 
AFIBER5  FIBER        0 0        9.17200 8.26521 0.00000 0.00000 
AFIER 2  FIER 220     0 0        0.00000 0.00000 0.00000 0.00000 
AFIER 5  FIER         0 0        36.6881 -71.081 0.00000 0.00000 
AFIERZ2  HPP FIERZA   0 2 225.00 0.00000 0.00000 -157.19 24.6112 0.00000 -500.00 24.6112 -240.00 
AFIERZ5  FIERZ        0 0        0.00000 0.00000 0.00000 0.00000 
AFKCIM2  FKRUJE       0 0        23.8473 1.65304 0.00000 0.00000 
AFKRUJ5  FUSH KRUJE   0 0        5.50321 3.30609 0.00000 0.00000 
AFKUQE5  FUSH KUQ     0 0        16.5096 3.30609 0.00000 0.00000 
AFRZVJ5  FIERZ VJ     0 0        0.00000 0.00000 0.00000 0.00000 
AGJADR5  HPP GJADER   0 0        0.00000 0.00000 0.00000 0.00000 0.00000 -8.0000 5.00000 -10.000 
AGJIRE5  GJIROKASTE   0 0        7.33760 -1.6530 0.00000 0.00000 
AGJIRO5  GJIROKASTER  0 0        14.6752 0.00000 0.00000 0.00000 
AGJORI5  HPP Gjorice  0 2 115.00 0.00000 0.00000 -3.6640 -9.3567 0.00000 -12.000 5.00000 -10.000 
AGKUQ 5  GUR KUQ      0 0        1.83440 1.65304 0.00000 0.00000 
AGOLEM5  GOLEM        0 0        14.6752 6.61217 0.00000 0.00000 
AGSA  5  GSA          0 0        22.0128 1.65304 0.00000 0.00000 
AHIMAR5  HIMARE       0 0        3.66881 0.00000 0.00000 0.00000 
AIBE  5  IBE          0 0        0.00000 0.00000 0.00000 0.00000 
AKAFAR5  KAFARAJ      0 0        5.50321 1.65304 0.00000 0.00000 
AKAJAN5  KAJAN        0 0        1.83440 1.65304 0.00000 0.00000 
AKALIM5  KALIMASH     0 0        9.17200 3.30609 0.00000 0.00000 
AKASHA51 KASHAR 51    0 0        69.7072 8.26521 0.00000 0.00000 
AKAVAJ5  KAVAJ        0 0        23.8473 3.30609 0.00000 0.00000 
AKELCY5  KELCYR       0 0        3.66881 1.65304 0.00000 0.00000 
AKOLAC2  KOLAC        0 0        0.00000 0.00000 0.00000 0.00000 
AKOMAN1  HPP KOMAN    0 0        0.00000 0.00000 0.00000 0.00000 0.00000 -300.00 200.000 -320.00 
AKOMAN2  HPP KOMAN    0 2 225.00 0.00000 0.00000 -365.55 203.372 0.00000 -600.00 203.372 -320.00 
AKOMBI5  KOMBINAT     0 0        9.17200 0.00000 0.00000 0.00000 
AKOPLI2  KOPLIK       0 0        18.3440 1.65304 0.00000 0.00000 
AKORCE5  KORCE        0 0        16.5096 6.61217 0.00000 0.00000 
AKOSMC5  KOSMC        0 0        0.00000 0.00000 0.00000 0.00000 
AKRAHS5  KRAHES       0 0        1.83440 0.00000 0.00000 0.00000 
AKRUJE5  KRUJE        0 0        5.50321 0.00000 0.00000 0.00000 
AKUCOV5  KUCOVE       0 0        18.3440 8.26521 0.00000 0.00000 
AKUKES5  KUKES        0 0        0.00000 0.00000 0.00000 0.00000 
AKURBN5  KURBNESH     0 0        0.00000 0.00000 0.00000 0.00000 
ALAC1 5  LAC 1        0 0        9.17200 3.30609 0.00000 0.00000 
ALAC2 5  LAC 2        0 0        3.66881 1.65304 0.00000 0.00000 
ALAJTH5  LAJTHIZE     0 0        0.00000 0.00000 0.00000 0.00000 
ALALEZ5  LALEZ        0 0        1.83440 1.65304 0.00000 0.00000 
ALAPAJ5  HPP LAPAJ    0 2 115.00 0.00000 0.00000 -0.3808 -8.9697 0.00000 -12.000 5.00000 -10.000 
ALENGA5  HPP LENGAR   0 0        0.00000 0.00000 0.00000 0.00000 0.00000 -12.000 5.00000 -10.000 
ALEZHA5  LEZHA        0 0        33.0193 14.8774 0.00000 0.00000 
ALIBRZ5  LIBRAZHD     0 0        1.83440 0.00000 0.00000 0.00000 0.00000 -16.000 5.00000 -10.000 
ALUMZI5  HPP Lumezi   0 0        0.00000 0.00000 0.00000 0.00000 0.00000 -16.000 5.00000 -10.000 
ALURA 5  HPP LURA     0 0        0.00000 0.00000 0.00000 0.00000 0.00000 -16.000 5.00000 -10.000 
ALUSHN5  LUSHNJE      0 0        38.5224 -41.326 0.00000 0.00000 
AMALLA5  HPP MALLA    0 0        0.00000 0.00000 0.00000 0.00000 0.00000 -11.000 5.00000 -10.000 
AMAMUR5  MAMURAS      0 0        5.50321 3.30609 0.00000 0.00000 
AMARIN5  MARINZ       0 0        0.00000 0.00000 0.00000 0.00000 
AMEMAL5  MEMALIAJ     0 0        1.83440 1.65304 0.00000 0.00000 
AMOGLI2  HPP MOGLICE  0 2 225.00 0.00000 0.00000 -161.70 -70.742 0.00000 -180.00 18.0000 -164.80 
AORIKU5  ORIKUM       0 0        0.00000 0.00000 0.00000 0.00000 
APERME5  PERMET       0 0        1.83440 1.65304 0.00000 0.00000 
APESHK5  PESHKOPI     0 0        7.33760 3.30609 0.00000 0.00000 
APESHQ2  HPP PESHQESH 0 2 225.00 0.00000 0.00000 -12.817 17.3445 0.00000 -34.000 17.3445 -17.000 
APOGRD5  POGRADEC     0 0        14.6752 6.61217 0.00000 0.00000 
APRELL5  HPP PRELL    0 0        0.00000 0.00000 0.00000 0.00000 0.00000 -70.000 5.00000 -10.000 
APRENJ5  PRENJAS      0 0        1.83440 0.00000 0.00000 0.00000 
APROMA5  PORTO ROMA   0 0        25.6816 3.30609 0.00000 0.00000 
AQENDE5  QENDER       0 0        62.3696 28.1017 0.00000 0.00000 
ARAPU45  HPP RAPUN 4  0 2 115.00 0.00000 0.00000 -0.0141 0.08999 0.00000 -8.0000 5.00000 -10.000 
ARENCI5  RENCI        0 0        3.66881 1.65304 0.00000 0.00000 
AREPSI5  REPSI        0 0        3.66881 1.65304 0.00000 0.00000 
ARRAZB5  RRAZHBULL2   0 0        0.00000 0.00000 0.00000 0.00000 
ARRAZH2  RRASHBULL    0 0        0.00000 0.00000 0.00000 0.00000 
ARRAZH5  RRAZHBULL1   0 0        0.00000 0.00000 0.00000 0.00000 
ARUBIK5  RUBIK        0 0        3.66881 1.65304 0.00000 0.00000 
ASARAN5  SARANDE      0 0        20.1784 9.91826 0.00000 0.00000 
ASELEN5  SELENIC      0 0        7.33760 1.65304 0.00000 0.00000 
ASELIT5  SELIT        0 0        97.2233 42.9791 0.00000 0.00000 
ASETA 5  HPP Seta     0 0        0.00000 0.00000 0.00000 0.00000 0.00000 -70.000 5.00000 -10.000 
ASHARR2  SHARRE       0 0        22.0128 8.26521 0.00000 0.00000 
ASHARR5  SHARRE       0 0        0.00000 0.00000 0.00000 0.00000 
ASHKD15  SHKODER 1    0 0        31.1848 8.26521 0.00000 0.00000 
ASHKD25  SHKODER 2    0 0        36.6881 16.5304 0.00000 0.00000 
ASHKP15  HPP SHK 1    0 2 115.00 0.00000 0.00000 -2.9388 -68.713 0.00000 -12.000 5.00000 -69.340 
ASHKP25  HPP SHK 2    0 0        0.00000 0.00000 0.00000 0.00000 0.00000 -12.000 5.00000 -10.000 
ASHKZT5  SHKOZET      0 0        36.6881 16.5304 0.00000 0.00000 
ASHPEL5  HPP Shpella  0 0        0.00000 0.00000 0.00000 0.00000 0.00000 -11.000 5.00000 -10.000 
ASHUPE5  SHUPENZ      0 0        1.83440 0.00000 0.00000 0.00000 
ASHUTR5  SHUTRI       0 0        0.00000 0.00000 0.00000 0.00000 
ASLAB25  HPP Slabinj2 0 2 115.00 0.00000 0.00000 -0.1505 2.22240 0.00000 -16.000 5.00000 -10.000 
ASLABI5  HPP SLABINJ  0 2 115.00 0.00000 0.00000 -0.8392 2.04649 0.00000 -11.000 5.00000 -10.000 
ASUC  5  SUC          0 0        0.00000 0.00000 0.00000 0.00000 
ASUKTH5  SUKT         0 0        16.5096 8.26521 0.00000 0.00000 
ATEPEL5  TEPELENE     0 0        1.83440 1.65304 0.00000 0.00000 
ATERNV5  HPP TERNOV   0 0        0.00000 0.00000 0.00000 0.00000 0.00000 -11.000 5.00000 -10.000 
ATIRA21  TIRANA2 400  0 0        0.00000 0.00000 0.00000 0.00000 
ATIRA22  TIRANA2 220  0 0        0.00000 0.00000 0.00000 0.00000 
ATIRA25  TIRANA       0 0        0.00000 0.00000 0.00000 0.00000 
ATIRAN2  TIRANA 220   0 0        104.561 41.3261 0.00000 0.00000 
ATIRAN5  TIRANA       0 0        0.00000 0.00000 0.00000 0.00000 
ATITAN2  TITAN        0 0        20.1784 9.91826 0.00000 0.00000 
ATUNEL5  TUNEL        0 0        0.00000 0.00000 0.00000 0.00000 
AULEZ 5  HPP ULEZ     0 2 115.00 1.83440 0.00000 -6.7832 -21.468 0.00000 -25.000 5.00000 -23.306 
AUTRAK5  UZINA TRA    0 0        39.4396 11.5713 0.00000 0.00000 
AUZNOV5  UZNOVE       0 0        5.50321 1.65304 0.00000 0.00000 
AVDEJA2  HPP V DEJES  0 2 225.00 0.00000 0.00000 -85.102 38.6720 0.00000 -250.00 38.6720 -150.00 
AVDEJS5  VDEJES 5     0 0        0.00000 0.00000 0.00000 0.00000 
AVDVJT5  VDEJES VJTR  0 0        5.50321 3.30609 0.00000 0.00000 
AVLOR25  VLORA 2      0 0        0.00000 0.00000 0.00000 0.00000 
AVLOR35  Vlora3       0 0        0.00000 0.00000 0.00000 0.00000 
AVLORE5  VLORE        0 0        0.00000 0.00000 0.00000 0.00000 
AVLOTP2  TPPVLORA     0 0        0.00000 0.00000 0.00000 0.00000 0.00000 -110.00 18.0000 -67.000 
AVOJNI5  VOJNIK       0 0        3.66881 1.65304 0.00000 0.00000 
AZEMLA1  ZEMLAK       0 0        0.00000 120.000 0.00000 0.00000 
AZEMLA5  ZEMBLAK      0 0        0.00000 0.00000 0.00000 0.00000 
##ZBE
BAALNO31 AALNO150     0 0        0.00000 0.00000 0.00000 0.00000 
BAALNO32 AALNO150     0 0        36.4580 8.11838 0.00000 0.00000 
BAALST31 AALST150     0 0        69.6680 13.8080 0.00000 0.00000 
BAALTR31 AALTR150     0 0        22.7891 2.74519 0.00000 0.00000 
BAALTR32 AALTR150     0 0        22.3317 5.07618 0.00000 0.00000 
BACHEN11 ACHEN380     0 0        69.9689 2.27982 0.00000 0.00000 
BACHEN12 ACHEN380     0 0        0.00000 0.00000 0.00000 0.00000 
BACHES11 ACHES380     0 0        2.51110 -1.8455 0.00000 0.00000 
BAIRLI31 AIRLI150     0 0        16.9587 14.8000 0.00000 0.00000 
BALEGR10 ALEGR380     0 0        0.00000 0.00000 0.00000 0.00000 
BALEGR11 ALEGR380     0 0        0.00000 0.00000 0.00000 0.00000 
BALEGR12 ALEGR380     0 0        0.00000 0.00000 0.00000 0.00000 0.00000 -1000.0 500.000 -500.00 
BALZ  31 ALZ 150      0 0        9.59636 6.26194 0.00000 0.00000 
BALZ  32 ALZ 150      0 0        0.10993 0.98451 0.00000 0.00000 
BALZ  33 ALZ 150      0 0        15.8226 -1.4548 0.00000 0.00000 
BALZ  34 ALZ 150      0 0        27.7905 1.87279 -0.1001 -0.0100 0.00000 -4.6000 0.46000 -1.5180 
BAMERC31 AMERC150     0 0        0.00000 0.00000 0.00000 0.00000 
BAMERC3C AMERC150     0 0        0.00000 0.00000 0.00000 0.00000 
BAMERC3V AMERC 16     0 2 156.33 0.00000 0.00000 -284.30 9.51535 -96.000 -284.30 66.4700 -156.60 
BAMERC3W AMERC 12     0 2 156.58 0.00000 0.00000 -159.90 -3.0855 -54.000 -159.90 25.7500 -85.790 
BAMOCO31 AMOCO150     0 0        66.1328 16.8578 -24.690 -2.4660 
BANDUM1R ANDUM380     0 0        0.00000 0.00000 0.00000 0.00000 
BANDUM30 ANDUM150     0 0        0.00000 0.00000 0.00000 0.00000 
BANDUM31 ANDUM150     0 0        0.00000 0.00000 0.00000 0.00000 
BANDUM32 ANDUM150     0 0        0.00000 0.00000 0.00000 0.00000 
BANDUM33 ANDUM150     0 0        0.00000 0.00000 0.00000 0.00000 
BANS  31 ANS 150      0 0        44.9582 5.46278 0.00000 0.00000 
BANS  32 ANS 150      0 0        5.04815 -0.0404 0.00000 0.00000 
BANTOI31 ANTOI150     0 0        64.2223 12.3634 0.00000 0.00000 
BATOFI3A ATOFI150     0 0        8.34504 2.79186 0.00000 0.00000 
BATOFI3B ATOFI150     0 0        2.58092 0.85134 0.00000 0.00000 
BAUBAN11 AUBAN380     0 0        0.00000 0.00000 0.00000 0.00000 
BAUBAN21 AUBAN220     0 0        44.1087 151.090 0.00000 0.00000 
BAUBAN22 AUBAN220     0 0        0.18834 135.838 0.00000 0.00000 
BAUBAN23 AUBAN220     0 0        0.00000 0.00000 0.00000 0.00000 
BAUBAN24 AUBAN220     0 0        0.00000 0.00000 0.00000 0.00000 
BAUVEL32 AUVEL150     0 0        15.2004 -7.1464 0.00000 0.00000 
BAUVEL33 AUVEL150     0 0        19.4621 1.30457 0.00000 0.00000 
BAUVEL3R AUVEL150     0 0        19.2974 2.35940 0.00000 0.00000 
BAVERN31 AVERN150     0 2 156.21 8.60310 -1.7633 -0.4005 -23.298 0.00000 -32.000 6.58000 -27.000 
BAVERN32 AVERN150     0 0        0.14003 80.6883 0.00000 0.00000 
BAVERN3R AVERN150     0 0        0.00000 0.00000 0.00000 0.00000 
BAVERN3S AVERN150     0 0        0.10809 0.69588 0.00000 0.00000 
BAVLGM11 AVLGM380     0 0        0.00000 0.00000 0.00000 0.00000 
BAVLGM12 AVLGM380     0 0        0.00000 0.00000 0.00000 0.00000 
BAVLGM31 AVLGM150     0 0        0.00000 0.00000 0.00000 0.00000 
BAVLGM32 AVLGM150     0 0        0.00000 0.00000 0.00000 0.00000 
BAWIRS21 AWIRS220     0 0        74.0640 21.8773 0.00000 0.00000 
BAWIRS31 AWIRS150     0 0        0.00000 0.00000 0.00000 0.00000 
BAWIRS3W AWIRS 15     0 0        0.00000 0.00000 -74.160 -39.382                 5.41394 -71.960 
BBAISY31 BAISY150     0 0        94.8431 -37.428 0.00000 0.00000 
BBALEN31 BALEN150     0 0        0.00000 0.00000 0.00000 0.00000 
BBALEN32 BALE+150     0 0        0.00000 0.00000 0.00000 0.00000 
BBALEN3R BALEN150     0 0        0.00000 0.00000 0.00000 0.00000 
BBALEN3_ BALEN150     0 0        0.00000 0.00000 0.00000 0.00000 
BBASCO32 BASCO150     0 0        20.3060 1.97557 0.00000 0.00000 
BBASCO3R BASCO150     0 0        0.01514 0.03121 0.00000 0.00000 
BBASF 31 BASF 150     0 0        73.0287 30.8839 -14.063 -1.4046 
BBASF 32 BASF 150     0 0        59.2992 24.6214 0.00000 0.00000 
BBASF 34 BASF 150     0 0        64.0432 7.45967 0.00000 0.00000 
BBASF 3A BASF 150     0 0        58.6745 24.8994 0.00000 0.00000 
BBASF 3B BASF 150     0 0        69.3818 28.8776 0.00000 0.00000 
BBASF 3W BASF 21      0 2 156.13 0.00000 0.00000 -378.00 -26.757 -230.00 -378.00 124.545 -241.71 
BBASF 3_ BASF 150     0 0        0.00000 0.00000 0.00000 0.00000 
BBASSW3R BASSW150     0 0        44.9018 34.7827 0.00000 0.00000 
BBASTO2R BASTO220     0 0        0.02099 0.09199 0.00000 0.00000 
BBATTI3R BATTI150     0 0        18.6831 0.91194 0.00000 0.00000 
BBAUDO31 BAUDO150     0 0        0.00000 0.00000 0.00000 0.00000 
BBAUDO32 BAUDO150     0 0        70.0620 -70.913 0.00000 0.00000 
BBAUDO3W BAUDO 24     0 2 151.51 0.00000 0.00000 -348.70 70.3835 -130.00 -348.70 107.881 -317.72 
BBAYMI3R BAYMI150     0 0        20.0366 13.4722 0.00000 0.00000 
BBEERS3R BEERS150     0 0        0.00000 0.00000 0.00000 0.00000 
BBEERS3S BEERS150     0 0        69.5505 15.0674 0.00000 0.00000 
BBERIN31 BERIN150     0 0        84.9765 20.3656 0.00000 0.00000 
BBERIN32 BERIN150     0 0        0.00000 0.00000 0.00000 0.00000 
BBERNE21 BERNE220     0 0        0.20471 0.03156 0.00000 0.00000 
BBERST32 BERST150     0 0        10.1065 0.83977 0.00000 0.00000 
BBERST3R BERST150     0 0        9.94167 0.60386 0.00000 0.00000 
BBIFF+22 BIFF+220     0 0        0.00000 0.00000 0.00000 0.00000 
BBINCH31 BINCH150     0 0        12.2989 0.68754 0.00000 0.00000 
BBLANC31 BLANC150     0 0        9.42435 -1.2557 0.00000 0.00000 
BBLANC32 BLANC150     0 0        0.02652 0.07147 0.00000 0.00000 
BBLTOR31 BLTOR150     0 0        0.00000 0.00000 0.00000 0.00000 
BBLTOR32 BLTOR150     0 0        0.00000 0.00000 0.00000 0.00000 
BBOLAL32 BOLAL150     0 0        1.59804 -11.048 0.00000 0.00000 
BBOTCC32 BOTCC150     0 0        0.04917 0.36639 0.00000 0.00000 
BBOTCC3R BOTCC150     0 0        20.9058 -5.6303 0.00000 0.00000 
BBO_HF31 BO_HF150     0 0        2.58345 12.1097 0.00000 0.00000 
BBRAIN31 BRAIN150     0 0        26.4751 2.37372 0.00000 0.00000 
BBRESS31 BRESS150     0 0        0.02321 0.09636 0.00000 0.00000 
BBRESS32 BRESS150     0 0        19.8051 5.25047 0.00000 0.00000 
BBRUEG11 BRUEG 36     0 0        0.00000 0.00000 0.00000 0.00000 
BBRUEG12 BRUEG380     0 0        0.00000 0.00000 0.00000 0.00000 
BBRUEG1A BRUEG380     0 0        0.00000 0.00000 0.00000 0.00000 
BBRUEG1S              0 0        0.00000 0.00000 0.00000 0.00000 
BBRUEG31 BRUEG150     0 0        0.00000 0.00000 0.00000 0.00000 
BBRUEG32 BRUEG150     0 0        0.00000 0.00000 0.00000 0.00000 
BBRUEG3A BRUEG150     0 0        0.00000 0.00000 0.00000 0.00000 
BBRUEG3B BRUEG150     0 0        0.00000 0.00000 0.00000 0.00000 
BBRUGG31 BRUGG150     0 0        62.7907 82.9405 0.00000 0.00000 
BBRUGG32 BRUGG150     0 0        43.7375 7.72061 0.00000 0.00000 
BBRUME11 BRUME380     0 0        0.00000 0.00000 0.00000 0.00000 
BBRUME12 BRUME380     0 0        20.4524 -12.730 0.00000 0.00000 
BBRUME21 BRUME220     0 0        30.7398 7.53772 0.00000 0.00000 
BBRUMS2R BRUMS220     0 0        0.88798 -0.5638 0.00000 0.00000 
BBRUST3R BRUST150     0 0        63.9137 -1.6842 0.00000 0.00000 
BBUGG+12 BUGG+380     0 0        0.00000 0.00000 0.00000 0.00000 
BBUGG+1R BUGG+380     0 0        0.00000 0.00000 0.00000 0.00000 
BBUIZI31 BUIZI150     0 0        48.8260 3.38338 0.00000 0.00000 
BBURCH32 BURCH150     0 0        15.8009 -4.1471 0.00000 0.00000 
BBVERW32 BVERW150     0 0        10.7514 -3.3682 0.00000 0.00000 
BBVERW3A BVERW150     0 0        18.4114 -2.5602 0.00000 0.00000 
BBVERW3R BVERW150     0 0        0.00000 0.00000 0.00000 0.00000 
BBVREN31 BVREN150     0 0        12.1822 1.16684 0.00000 0.00000 
BBVREN32 BVREN150     0 0        24.2574 3.83167 0.00000 0.00000 
BBWTON31 BWTON150     0 0        36.3006 12.3991 0.00000 0.00000 
BCAMOC31 CAMOC150     0 0        0.01574 0.00762 0.00000 0.00000 
BCARAL3R CARAL150     0 0        1.55569 1.56249 0.00000 0.00000 
BCBR3A32 CBR3A150     0 0        14.2038 4.73790 0.00000 0.00000 
BCBR3A33 CBR3A150     0 0        0.05181 0.32874 0.00000 0.00000 
BCFINF37 CFINF150     0 0        0.00000 0.00000 -43.803 -5.2322 
BCFINF38 CFINF150     0 0        0.00000 0.00000 -87.245 -4.7678 
BCHACO31 CHACO150     0 0        5.21054 -3.0183 0.00000 0.00000 
BCHAMP11 CHAMP380     0 0        75.0425 -9.2627 0.00000 0.00000 
BCHAMP12 CHAMP380     0 0        72.8105 24.0847 0.00000 0.00000 
BCHARL3R CHARL150     0 0        0.01685 0.00495 0.00000 0.00000 
BCHARL3S CHARL150     0 0        21.6992 4.34204 0.00000 0.00000 
BCHER+3R CHER+150     0 0        0.00000 0.00000 0.00000 0.00000 
BCHERA34 CHERA150     0 0        2.86321 0.67791 0.00000 0.00000 
BCHERA3R CHERA150     0 0        12.7142 0.72966 0.00000 0.00000 
BCHIEV31 CHIEV150     0 0        9.01123 2.41927 0.00000 0.00000 
BCHIEV32 CHIEV150     0 0        0.00000 0.00000 0.00000 0.00000 
BCKNIP31 CKNIP150     0 0        0.00000 0.00000 0.00000 0.00000 
BCKNIP3W CKNIP 16     0 2 156.15 0.00000 0.00000 -300.00 -5.8293 -104.00 -300.00 76.8036 -320.57 
BCLABE31 CLABE150     0 0        9.16265 2.72480 0.00000 0.00000 
BCLABE3R CLABE150     0 0        0.00000 0.00000 0.00000 0.00000 
BCLABE3S CLABE150     0 0        0.00000 0.00000 0.00000 0.00000 
BCLANG31 CLANG150     0 0        45.6685 7.91705 0.00000 0.00000 
BCLANG32 CLANG150     0 0        45.9362 7.99129 0.00000 0.00000 
BCLANG33 CLANG150     0 0        11.8612 1.52951 0.00000 0.00000 
BCMARE31 CMARE150     0 0        0.01679 0.01479 0.00000 0.00000 
BCMARE3W CMARE 20     0 0        0.01399 0.10151 0.00000 0.00000                 143.290 -158.17 
BCOO  11 COO 380      0 0        0.00000 0.00000 0.00000 0.00000 
BCOO  12 COO 380      0 0        0.00000 0.00000 0.00000 0.00000 
BCOO  1R COO 20       0 2 380.07 0.00000 0.00000 -140.17 16.2308 145.000 -145.00 24.0500 -118.43 
BCOO  1S COO 20       0 2 380.28 0.00000 0.00000 -145.00 15.0564 145.000 -145.00 24.0500 -118.43 
BCOO  1T COO 20       0 2 380.28 0.00000 0.00000 -145.00 15.0564 145.000 -145.00 24.0500 -118.43 
BCOO  1U COO 20       0 2 409.01 0.00000 0.00000 -165.20 -9.7568 200.000 -215.00 45.1058 -163.35 
BCOO  1V COO 20       0 0        0.00000 0.00000 0.00000 0.00000 200.000 -215.00 65.3700 -136.03 
BCOO  1W COO 20       0 0        0.00000 0.00000 0.00000 0.00000 200.000 -215.00 65.3700 -136.03 
BCORBA3R CORBA150     0 0        0.00000 0.00000 0.00000 0.00000 
BCOURC11 COURC380     0 0        0.00000 0.00000 0.00000 0.00000 
BCOURC12 COURC380     0 0        0.00000 0.00000 0.00000 0.00000 
BCOURC3R COURC150     0 0        0.00000 0.00000 0.00000 0.00000 
BCQUIN31 CQUIN150     0 0        24.7300 5.32457 0.00000 0.00000 
BCZWIJ31 CZWIJ150     0 0        46.5161 25.1515 0.00000 0.00000 
BCZWIJ32 CZWIJ150     0 0        0.00000 0.00000 0.00000 0.00000 
BCZWIJ3U CZWIJ 11     0 0        0.00000 0.00000 -34.742 -3.1162 -16.000 -40.700 0.41859 -27.755 
BCZWIJ3V CZWIJ 11     0 0        0.00000 0.00000 -34.742 -3.2610 -16.000 -40.700 -1.0215 -33.860 
BCZWIJ3W CZWIJ 11     0 0        0.00000 0.00000 -34.641 -3.9854 -16.000 -40.600 0.43044 -27.741 
BDAMPL31 DAMPL150     0 0        16.7673 2.02531 0.00000 0.00000 
BDAMPL32 DAMPL150     0 0        16.9419 2.04245 0.00000 0.00000 
BDAMPR31 DAMPR150     0 0        0.00000 0.00000 0.00000 0.00000 
BDAMPR32 DAMPR150     0 0        0.00000 0.00000 0.00000 0.00000 
BDAMPR3R DAMPR150     0 0        0.00000 0.00000 0.00000 0.00000 
BDAMPS35 DAMPS150     0 0        2.93488 -0.6438 0.00000 0.00000 
BDAMPS36 DAMPS150     0 0        2.93455 -0.6438 0.00000 0.00000 
BDEIN+32 DEIN+150     0 0        0.00000 0.00000 0.00000 0.00000 
BDEIN+3R DEIN+150     0 0        0.00000 0.00000 0.00000 0.00000 
BDEINZ31 DEINZ150     0 0        20.9967 5.02087 0.00000 0.00000 
BDEINZ32 DEINZ150     0 0        21.4726 5.19766 0.00000 0.00000 
BDESG+3R DESG+150     0 0        0.00000 0.00000 0.00000 0.00000 
BDESGM31 DESGM150     0 0        10.0748 0.90979 0.00000 0.00000 
BDHANI3A DHANI150     0 0        30.0218 5.52807 0.00000 0.00000 
BDHANI3B DHANI150     0 0        0.00000 0.00000 0.00000 0.00000 
BDHANI3C DHANI150     0 0        44.5187 8.05524 0.00000 0.00000 
BDIEST3R DIEST150     0 0        64.1486 2.29473 0.00000 0.00000 
BDILB+31 DILB+150     0 0        0.00000 0.00000 0.00000 0.00000 
BDILBE3R DILBE150     0 0        24.7139 -4.6915 0.00000 0.00000 
BDOEL 11 DOEL 380     0 0        0.00000 0.00000 0.00000 0.00000 
BDOEL 12 DOEL 380     0 0        0.00000 0.00000 0.00000 0.00000 
BDOEL 1A DOEL 380     0 0        0.00000 0.00000 0.00000 0.00000 
BDOEL 1B DOEL 380     0 0        0.00000 0.00000 0.00000 0.00000 
BDOEL 1T DOEL 18      0 2 407.91 0.00000 0.00000 -455.50 -102.34 -182.00 -455.50 52.6238 -260.05 
BDOEL 1U DOEL 18      0 2 407.70 0.00000 0.00000 -453.70 -99.367 -182.00 -453.70 52.7955 -259.85 
BDOEL 1V DOEL 24      0 2 407.63 0.00000 0.00000 -1000.0 -216.48 -500.00 -1000.0 111.868 -558.48 
BDOEL 1W DOEL 24      0 0        0.00000 0.00000 0.00000 0.00000 -500.00 -1038.6 188.030 -489.03 
BDOEL 31 DOEL 150     0 0        0.00000 0.00000 0.00000 0.00000 
BDOEL 32 DOEL 150     0 0        1.99956 0.41704 0.00000 0.00000 
BDOTT+3R DOTT+150     0 0        0.00000 0.00000 0.00000 0.00000 
BDOTTI31 DOTTI150     0 0        13.3583 4.02071 0.00000 0.00000 
BDROGE11 DROGE380     0 0        0.00000 0.00000 0.00000 0.00000 
BDROGE31 DROGE150     0 0        64.2600 49.5693 0.00000 0.00000 
BDROGE33 DROGE150     0 0        48.0257 -4.4775 0.00000 0.00000 
BDROGE3U DROGE 15     0 2 151.69 0.00000 0.00000 -146.98 24.4205 -51.600 -159.80 24.4205 -153.97 
BDROGE3V DROGE 15     0 2 151.68 0.00000 0.00000 -146.98 24.0407 -51.600 -159.80 24.0407 -151.31 
BDROGE3W DROGE 15     0 2 156.02 0.00000 0.00000 -179.40 -14.874 -26.300 -179.40 21.7606 -142.30 
BDRONG3R DRONG150     0 0        47.0669 6.39003 0.00000 0.00000 
BEEKLN10 EEKLN380     0 0        0.00000 0.00000 0.00000 0.00000 
BEEKLN11 EEKLN380     0 0        0.00000 0.00000 0.00000 0.00000 
BEEKLN31 EEKLN150     0 0        11.6184 -0.3350 0.00000 0.00000 
BEEKLN32 EEKLN150     0 0        0.13417 77.3017 -0.1483 -0.0931 
BEEKLO32 EEKLO150     0 0        21.3734 0.78190 0.00000 0.00000 
BEEKLO3R EEKLO150     0 0        21.5485 0.77416 0.00000 0.00000 
BEISDE32 EISDE150     0 0        37.0577 -13.940 0.00000 0.00000 
BEISDE3A EISDE150     0 0        49.2852 20.1905 0.00000 0.00000 
BEIZE+3R EIZE+150     0 0        0.00000 0.00000 0.00000 0.00000 
BEIZER31 EIZER150     0 0        20.7158 1.35071 0.00000 0.00000 
BEKERE31 EKERE150     0 0        35.7777 -2.4241 0.00000 0.00000 
BESCH 2C ESCH 220     0 0        51.7210 19.5804 0.00000 0.00000 
BESCH 2E ESCH 220     0 0        0.00000 0.00000 0.00000 0.00000 
BESSO 31 ESSO 150     0 0        24.3701 15.7886 0.00000 0.00000 
BESSO 32 ESSO 150     0 0        33.3973 18.2189 0.00000 0.00000 
BESSO 3K ESSO 150     0 0        0.00000 0.00000 0.00000 0.00000 
BESSO 3W ESSO 15      0 0        0.00000 0.00000 -80.000 -4.6707 -80.000 -80.000 5.37955 -69.869 
BESSO+32 ESSO+150     0 0        0.00000 0.00000 0.00000 0.00000 
BESSO+3R ESSO+150     0 0        0.00000 0.00000 0.00000 0.00000 
BESSOC31 ESSOC150     0 0        15.8119 3.15673 0.00000 0.00000 
BESSOC32 ESSOC150     0 0        18.4087 6.92075 0.00000 0.00000 
BEUPEN32 EUPEN150     0 0        35.2875 8.50902 0.00000 0.00000 
BEUPEN3R EUPEN150     0 0        37.1108 -12.548 0.00000 0.00000 
BFAFER31 FAFER150     0 0        7.56481 7.41048 0.00000 0.00000 
BFAFER3R FAFER150     0 0        53.8460 -1.7305 0.00000 0.00000 
BFARCI32 FARCI150     0 0        0.01537 0.03168 0.00000 0.00000 
BFARCI3R FARCI150     0 0        19.5398 1.88263 0.00000 0.00000 
BFELUY3R FELUY150     0 0        0.00000 0.00000 0.00000 0.00000 
BFIBER3R FIBER150     0 0        12.8444 4.47145 0.00000 0.00000 
BFLEUR31 FLEUR150     0 0        2.92668 -1.0621 0.00000 0.00000 
BFLEUR32 FLEUR150     0 0        16.4669 1.44389 0.00000 0.00000 
BFLORA32 FLORA150     0 0        44.3422 4.21602 0.00000 0.00000 
BFLORA3R FLORA150     0 0        44.3426 4.22948 0.00000 0.00000 
BFOC  3R FOC 150      0 0        29.9493 13.4182 0.00000 0.00000 
BFOC+ 3R FOC+ 150     0 0        0.00000 0.00000 0.00000 0.00000 
BFONT+3  FONT+150     0 0        0.00000 0.00000 0.00000 0.00000 
BFONTA32 FONTA150     0 0        9.32083 0.31070 0.00000 0.00000 
BFONTA33 FONTA150     0 0        0.01572 0.03240 0.00000 0.00000 
BFONTA3R FONT+150     0 0        0.00000 0.00000 0.00000 0.00000 
BFORES3A FORES150     0 0        27.0768 3.50975 0.00000 0.00000 
BFORES3B FORES150     0 0        0.00000 0.00000 0.00000 0.00000 
BGALGE11 GALGE380     0 0        0.00000 0.00000 0.00000 0.00000 
BGASTH3A GASTH150     0 0        65.0491 18.7446 0.00000 0.00000 
BGAURA32 GAURA150     0 0        0.04543 0.19728 0.00000 0.00000 
BGAURA3R GAURA150     0 0        34.9452 18.4770 0.00000 0.00000 
BGENPM31 GENPM150     0 0        12.7898 6.21985 0.00000 0.00000 
BGEZEL10 GEZEL380     0 0        0.00000 0.00000 0.00000 0.00000 
BGEZEL11 GEZEL380     0 0        0.00000 0.00000 0.00000 0.00000 
BGEZEL12 GEZEL380     0 0        0.00000 0.00000 0.00000 0.00000 
BGEZEL13 GEZEL380     0 0        0.00000 0.00000 0.00000 0.00000 
BGEZEL14 GEZEL380     0 0        0.00000 0.00000 0.00000 0.00000 
BGEZEL15 GEZEL380     0 0        0.00000 0.00000 0.00000 0.00000 
BGEZEL16 GEZEL380     0 0        0.20711 129.893 0.00000 0.00000 
BGEZEL17 GEZEL380     0 0        0.20711 129.893 0.00000 0.00000 
BGILLY37 GILLY150     0 0        21.2131 2.94952 0.00000 0.00000 
BGODSH31 GODSH150     0 0        87.8827 9.84750 0.00000 0.00000 
BGOSS+32 GOSS+150     0 0        0.00000 0.00000 0.00000 0.00000 
BGOSS+3R GOSS+150     0 0        0.00000 0.00000 0.00000 0.00000 
BGOSSE31 GOSSE150     0 0        0.03908 0.08356 0.00000 0.00000 
BGOSSE32 GOSSE150     0 0        15.0253 3.50963 0.00000 0.00000 
BGOUY 11 GOUY 380     0 0        0.00000 0.00000 0.00000 0.00000 
BGOUY 12 GOUY 380     0 0        0.00000 0.00000 0.00000 0.00000 
BGOUY 31 GOUY 150     0 0        16.7369 2.59010 0.00000 0.00000 
BGOUY 32 GOUY 150     0 0        72.8129 -8.3864 0.00000 0.00000 
BGRAMM1A GRAMM380     0 0        0.00000 0.00000 0.00000 0.00000 
BGRAMM1B GRAMM380     0 0        0.00000 0.00000 0.00000 0.00000 
BGRAMM1C GRAMM380     0 0        0.00000 0.00000 0.00000 0.00000 
BGRAMM1D GRAMM380     0 0        0.00000 0.00000 0.00000 0.00000 
BGRAMM3A GRAMM150     0 0        0.00000 0.00000 0.00000 0.00000 
BGRAMM3B GRAMM150     0 0        0.00000 0.00000 0.00000 0.00000 
BGRIMB32 GRIMB150     0 0        0.02572 0.05604 0.00000 0.00000 
BGRIMB3R GRIMB150     0 0        24.0278 2.03331 0.00000 0.00000 
BHAM  32 HAM 150      0 0        13.8799 3.11761 -40.618 13.1201 
BHAM  3R HAM 150      0 0        0.00000 0.00000 -17.243 12.6193 
BHARE+32 HARE+150     0 0        0.00000 0.00000 0.00000 0.00000 
BHARE+3R HARE+150     0 0        0.00000 0.00000 0.00000 0.00000 
BHAREL31 HAREL150     0 0        32.8429 -0.4511 0.00000 0.00000 
BHAREL32 HAREL150     0 0        27.0918 -0.4365 0.00000 0.00000 
BHARMI3R HARMI150     0 0        31.3746 27.5020 0.00000 0.00000 
BHARWI3R HARWI150     0 0        0.00000 0.00000 0.00000 0.00000 
BHARYD31 HARYD150     0 0        23.7262 3.11892 0.00000 0.00000 
BHAVE731 HAVE7150     0 0        16.7364 2.44475 0.00000 0.00000 
BHAVE732 HAVE7150     0 0        19.2570 3.00225 0.00000 0.00000 
BHBRUG31 HBRUG150     0 0        0.00000 0.00000 0.00000 0.00000 
BHBRUG32 HBRUG150     0 0        0.00000 0.00000 0.00000 0.00000 
BHBRUG33 HBRUG150     0 0        0.00000 0.00000 0.00000 0.00000 
BHBRUG3U HBRUG 15     0 2 156.45 0.00000 0.00000 -142.87 10.7844 -55.800 -151.90 43.4860 -110.72 
BHBRUG3V HBRUG 15     0 2 156.45 0.00000 0.00000 -142.70 10.7904 -55.800 -142.70 43.4860 -109.62 
BHBRUG3W HBRUG 15     0 2 156.40 0.00000 0.00000 -131.50 11.8119 -25.800 -131.50 46.7045 -96.155 
BHEIM+32 HEIM+150     0 0        0.00000 0.00000 0.00000 0.00000 
BHEIMO31 HEIMO150     0 0        0.00000 0.00000 0.00000 0.00000 
BHEIMO3R HEIMO150     0 0        0.00000 0.00000 0.00000 0.00000 
BHEIMO3S HEIMO150     0 0        21.1665 1.98798 0.00000 0.00000 
BHEINS23 HEINS220     0 0        22.3900 -15.054 0.00000 0.00000 
BHEIST31 HEIST150     0 0        16.9356 0.64591 0.00000 0.00000 
BHEIST32 HEIST150     0 0        11.3310 0.12149 0.00000 0.00000 
BHELIA3R HELIA150     0 0        54.9281 23.4907 0.00000 0.00000 
BHERCU32 HERCU150     0 0        19.1216 6.34955 0.00000 0.00000 
BHERCU3R HERCU150     0 0        0.00000 0.00000 0.00000 0.00000 
BHERDE32 HERDE150     0 0        0.02456 0.02253 0.00000 0.00000 
BHERDE3R HERDE150     0 0        14.9562 2.30841 0.00000 0.00000 
BHEULE31 HEULE150     0 0        25.2169 4.53298 0.00000 0.00000 
BHEZE 31 HEZE 150     0 0        97.9826 14.7145 0.00000 0.00000 
BHOEN+32 HOEN+150     0 0        0.00000 0.00000 0.00000 0.00000 
BHOEN+3R HOEN+150     0 0        0.00000 0.00000 0.00000 0.00000 
BHOOGS3R HOOGS150     0 0        19.4609 0.73832 -3.1553 -10.557 
BHORTA10 HORTA380     0 0        0.00000 0.00000 0.00000 0.00000 
BHORTA11 HORTA380     0 0        0.00000 0.00000 0.00000 0.00000 
BHORTA12 HORTA380     0 0        0.00000 0.00000 0.00000 0.00000 
BHORTA13 HORTA380     0 0        0.00000 0.00000 0.00000 0.00000 
BHOUF+2R HOUF+220     0 0        0.00000 0.00000 0.00000 0.00000 
BHOUFF21 HOUFF220     0 0        9.82999 -6.5053 0.00000 0.00000 
BHOUT+3R HOUT+150     0 0        0.00000 0.00000 0.00000 0.00000 
BHOUTH31 HOUTH150     0 0        80.1144 14.7057 0.00000 0.00000 
BHSART3R HSART150     0 0        12.1724 -0.1217 0.00000 0.00000 
BIEPER31 IEPER150     0 0        17.0469 -2.2916 -0.2660 -0.0266 
BIEPNO31 IEPNO150     0 0        16.8678 5.81292 0.00000 0.00000 
BIEPNO3R IEPNO150     0 0        16.6031 5.93243 0.00000 0.00000 
BIXELL30 IXELL150     0 0        0.00000 0.00000 0.00000 0.00000 
BIXELL31 IXELL150     0 0        0.00000 0.00000 0.00000 0.00000 
BIXELL32 IXELL150     0 0        0.00000 0.00000 0.00000 0.00000 
BIXELL33 IXELL150     0 0        0.00000 0.00000 0.00000 0.00000 
BIXELL34 IXELL150     0 0        0.00000 0.00000 0.00000 0.00000 
BIXELL35 IXELL150     0 0        0.00000 0.00000 0.00000 0.00000 
BIXELL36 IXELL150     0 0        0.00000 0.00000 0.00000 0.00000 
BIXELL37 IXELL150     0 0        0.00000 0.00000 0.00000 0.00000 
BIXELL38 IXELL150     0 0        0.00000 0.00000 0.00000 0.00000 
BIXELL39 IXELL150     0 0        42.9225 6.43762 0.00000 0.00000 
BIXELL3A IXELL150     0 0        0.00000 0.00000 0.00000 0.00000 
BIXELL3B IXELL150     0 0        23.3096 0.04392 0.00000 0.00000 
BIXELL3C IXELL150     0 0        22.2430 -13.528 0.00000 0.00000 
BIZGEM12 IZGEM380     0 0        0.00000 0.00000 0.00000 0.00000 
BIZGEM1R IZGEM380     0 0        0.00000 0.00000 0.00000 0.00000 
BIZGEM31 IZGEM150     0 0        22.2387 -75.200 0.00000 0.00000 
BIZGEM32 IZGEM150     0 0        8.71862 -76.357 0.00000 0.00000 
BJEMAP3R JEMAP150     0 0        23.9827 4.38213 0.00000 0.00000 
BJUPIL21 JUPIL220     0 0        0.00000 0.00000 0.00000 0.00000 
BJUPIL22 JUPIL220     0 0        0.00000 0.00000 0.00000 0.00000 
BJUPIL32 JUPIL150     0 0        0.00000 0.00000 0.00000 0.00000 
BJUPIL3R JUPIL150     0 0        0.00000 0.00000 0.00000 0.00000 
BKALLO31 KALLO150     0 0        0.07677 0.60870 0.00000 0.00000 
BKALLO32 KALLO150     0 0        0.00000 0.00000 0.00000 0.00000 
BKEER+3R KEER+150     0 0        0.00000 0.00000 0.00000 0.00000 
BKENNE32 KENNE150     0 0        0.07101 2.20989 0.00000 0.00000 
BKENNE3R KENNE150     0 0        53.1519 7.43742 0.00000 0.00000 
BKETEN31 KETEN150     0 0        27.4248 7.67739 0.00000 0.00000 
BKETEN32 KETEN150     0 0        5.70592 6.00243 -6.0080 2.03163 
BKOBB+3R KOBB+150     0 0        0.00000 0.00000 0.00000 0.00000 
BKOBBE31 KOBBE150     0 0        20.0467 2.12081 0.00000 0.00000 
BKOKSI31 KOKSI150     0 0        47.5622 6.55572 0.00000 0.00000 
BKOKSI32 KOKSI150     0 0        0.00000 0.00000 0.00000 0.00000 
BKOKSI3A KOKSI150     0 0        35.3795 4.69263 0.00000 0.00000 
BKRUSS31 KRUSS150     0 0        80.1741 20.5320 0.00000 0.00000 0.00000 -25.000 49.3300 -49.330 
BKRUSS32 KRUSS150     0 0        70.1280 20.2646 0.00000 0.00000 
BKUUR+3R KUUR+150     0 0        0.00000 0.00000 0.00000 0.00000 
BKUURN31 KUURN150     0 0        12.2076 2.46126 0.00000 0.00000 
BLACRO30 LACRO150     0 0        0.00000 0.00000 0.00000 0.00000 
BLACRO31 LACRO150     0 0        0.00000 0.00000 0.00000 0.00000 
BLACRO32 LACRO150     0 0        0.00000 0.00000 0.00000 0.00000 
BLACRO33 LACRO150     0 0        0.00000 0.00000 0.00000 0.00000 
BLACRO34 LACRO150     0 0        0.00000 0.00000 0.00000 0.00000 
BLACRO35 LACRO150     0 0        0.00000 0.00000 0.00000 0.00000 
BLACRO36 LACRO150     0 0        0.00000 0.00000 0.00000 0.00000 
BLACRO37 LACRO150     0 0        0.00000 0.00000 0.00000 0.00000 
BLACRO38 LACRO150     0 0        0.00000 0.00000 0.00000 0.00000 
BLACRO39 LACRO150     0 0        23.0712 3.15872 0.00000 0.00000 
BLACRO3A LACRO150     0 0        0.01514 0.03120 0.00000 0.00000 
BLACRO3B LACRO150     0 0        4.16998 -0.2147 0.00000 0.00000 
BLANAK31 LANAK150     0 0        52.4660 20.2654 -0.0060 -0.0006 0.00000 -1.2000 1.26000 -1.2600 
BLANAK3W LANAK 10     0 2 146.28 22.6795 2.23423 -45.400 -9.4643 -20.000 -45.400 0.72000 -24.000 
BLANDN3R LANDN150     0 0        11.8025 0.99750 0.00000 0.00000 
BLANGE31 LANGE150     0 0        0.00000 0.00000 0.00000 0.00000 
BLANGE32 LANGE150     0 0        0.00000 0.00000 0.00000 0.00000 
BLANLO31 LANLO150     0 0        40.8187 11.9058 0.00000 0.00000 
BLANLO32 LANLO150     0 0        54.2065 9.26405 0.00000 0.00000 
BLATO+2R LATO+220     0 0        0.00000 0.00000 0.00000 0.00000 
BLATOU21 LATOU220     0 0        6.85314 4.08306 0.00000 0.00000 
BLATRO21 LATRO220     0 0        16.4802 2.93727 0.00000 0.00000 
BLATRO22 LATRO220     0 0        16.4802 2.93727 0.00000 0.00000 
BLEES+32 LEES+150     0 0        0.00000 0.00000 0.00000 0.00000 
BLEES+3R LEES+150     0 0        0.00000 0.00000 0.00000 0.00000 
BLEVAL21 LEVAL220     0 0        0.00000 0.00000 0.00000 0.00000 
BLEVAL22 LEVAL220     0 0        0.00000 0.00000 0.00000 0.00000 
BLEVAL2U LEVAL 15     0 0        0.00000 0.00000 -156.50 -15.650 -72.000 -156.50 5.74115 -112.16 
BLEVAL2V LEVAL 15     0 0        0.00000 0.00000 -156.50 -15.650 -72.000 -156.50 5.65676 -112.29 
BLEVAL2W LEVAL 15     0 0        0.00000 0.00000 -166.90 -16.670 -120.00 -171.50 4.80465 -113.21 
BLIEF+1R LIEF+380     0 0        0.00000 0.00000 0.00000 0.00000 
BLIEF+1S LIEF+380     0 0        0.00000 0.00000 0.00000 0.00000 
BLIER 3R LIER 150     0 0        31.7501 8.62967 0.00000 0.00000 
BLIER 3T LIER 150     0 0        56.9927 1.83534 0.00000 0.00000 
BLIGNE32 LIGNE150     0 0        19.6214 6.33775 0.00000 0.00000 
BLIGNE3R LIGNE150     0 0        14.9964 11.6260 0.00000 0.00000 
BLILLO11 LILLO380     0 0        0.00000 0.00000 0.00000 0.00000 
BLILLO12 LILLO380     0 0        0.00000 0.00000 0.00000 0.00000 
BLILLO31 LILLO150     0 0        19.3406 12.3438 0.00000 0.00000 
BLILLO32 LILLO150     0 0        0.00000 0.00000 0.00000 0.00000 
BLILLO33 LILLO150     0 0        0.00000 0.00000 0.00000 0.00000 
BLINT 31 LINT 150     0 0        0.00000 0.00000 0.00000 0.00000 
BLINT 32 LINT 150     0 0        0.00000 0.00000 0.00000 0.00000 
BLINTT12 LINT 380     0 0        0.00000 0.00000 0.00000 0.00000 
BLINTT1R LINT 380     0 0        0.00000 0.00000 0.00000 0.00000 
BLIXHE11 LIXHE380     0 0        0.00000 0.00000 0.00000 0.00000 
BLIXHE12 LIXHE380     0 0        0.00000 0.00000 0.00000 0.00000 
BLIXHE27 LIXHE220     0 0        33.7656 6.45474 0.00000 0.00000 
BLIXHE31 LIXHE150     0 0        0.00000 0.00000 0.00000 0.00000 
BLIXHE32 LIXHE150     0 0        27.4032 1.47374 0.00000 0.00000 
BLOKER31 LOKER150     0 0        42.3303 4.30984 -0.0957 -1.8967 
BLOMME31 LOMME150     0 0        49.8517 3.98496 0.00000 0.00000 
BMACHE31 MACHE150     0 0        75.7578 -2.2841 0.00000 0.00000 
BMACHE32 MACHE150     0 0        24.6379 2.29714 0.00000 0.00000 
BMAERL10 MAERL380     0 0        0.00000 0.00000 0.00000 0.00000 
BMAERL11 MAERL380     0 0        0.00000 0.00000 0.00000 0.00000 
BMAERL12 MAERL380     0 0        0.00000 0.00000 0.00000 0.00000 
BMAERL13 MAERL380     0 0        0.00000 0.00000 0.00000 0.00000 
BMAERL14 MAERL380     0 0        0.00000 0.00000 0.00000 0.00000 
BMAERL15 MAERL380     0 0        0.00000 0.00000 0.00000 0.00000 
BMAERL16 MAERL380     0 0        0.00000 0.00000 0.00000 0.00000 
BMAERL17 MAERL380     0 0        0.00000 0.00000 0.00000 0.00000 
BMALDR32 MALDR150     0 0        31.1359 45.6719 0.00000 0.00000 
BMALDR3R MALDR150     0 0        28.8822 -40.765 0.00000 0.00000 
BMALEC31 MALEC150     0 0        9.12455 2.28064 0.00000 0.00000 
BMALEC32 MALEC150     0 0        9.01703 2.25626 0.00000 0.00000 
BMALLE31 MALLE150     0 0        11.1766 0.72068 0.00000 0.00000 
BMALLE32 MALLE150     0 0        9.83656 -1.7059 0.00000 0.00000 
BMARC+2R MARC+220     0 0        0.00000 0.00000 0.00000 0.00000 
BMARCO21 MARCO220     0 0        21.7131 -4.8347 0.00000 0.00000 
BMARQ+3R MARQ+150     0 0        0.00000 0.00000 0.00000 0.00000 
BMARQU31 MARQU150     0 0        0.00000 0.00000 0.00000 0.00000 
BMASSE11 MASSE380     0 0        0.00000 0.00000 0.00000 0.00000 
BMASSE31 MASSE150     0 0        0.00000 0.00000 0.00000 0.00000 
BMASSE32 MASSE150     0 0        0.00000 0.00000 0.00000 0.00000 
BMCHIN31 MCHIN150     0 0        4.00678 5.05377 0.00000 0.00000 
BMECHL31 MECHL150     0 0        58.2864 28.7225 0.00000 0.00000 
BMECHL32 MECHL150     0 0        72.3157 -17.897 0.00000 0.00000 
BMECHL3R MECHL150     0 0        0.00000 0.00000 0.00000 0.00000 
BMEERH11 MEERH380     0 0        0.00000 0.00000 0.00000 0.00000 
BMEERH12 MEERH380     0 0        0.00000 0.00000 0.00000 0.00000 
BMEERH31 MEERH150     0 0        18.2637 0.55414 0.00000 0.00000 
BMEERH32 MEERH150     0 0        0.00000 0.00000 0.00000 0.00000 
BMEKI+1R MEKI+380     0 0        0.00000 0.00000 0.00000 0.00000 
BMERCA11 MERCA380     0 0        0.00000 0.00000 0.00000 0.00000 
BMERCA12 MERCA380     0 0        0.00000 0.00000 0.00000 0.00000 
BMERCA1A MERCA380     0 0        0.00000 0.00000 0.00000 0.00000 
BMERCA1B MERCA380     0 0        0.00000 0.00000 0.00000 0.00000 
BMERCA31 MERCA150     0 0        0.00000 0.00000 0.00000 0.00000 
BMERCA32 MERCA150     0 0        0.00000 0.00000 0.00000 0.00000 
BMERCH32 MERCH150     0 0        19.4802 -2.7006 0.00000 0.00000 
BMERCH3R MERCH150     0 0        16.9205 -1.1195 0.00000 0.00000 
BMERKS31 MERKS150     0 0        83.5870 -4.7645 0.00000 0.00000 
BMERKS32 MERKS150     0 0        24.9063 -76.474 0.00000 0.00000 
BMEWST31 MEWST150     0 0        0.00000 0.00000 0.00000 0.00000 
BMEWST32 MEWST150     0 0        20.1452 0.56281 0.00000 0.00000 
BMHIN+3R MHIN+150     0 0        0.00000 0.00000 0.00000 0.00000 
BMIDI 31 MIDI 150     0 0        46.1415 -13.424 0.00000 0.00000 
BMOEN+32 MOEN+150     0 0        0.00000 0.00000 0.00000 0.00000 
BMOEN+3R MOEN+150     0 0        0.00000 0.00000 0.00000 0.00000 
BMOL  31 MOL 150      0 0        44.2780 -65.494 0.00000 0.00000 
BMOL  32 MOL 150      0 0        50.9558 -3.5957 0.00000 0.00000 
BMOLEN3A MOLEN150     0 0        23.7121 0.95030 0.00000 0.00000 
BMOLEN3B MOLEN150     0 0        47.9392 -1.1312 0.00000 0.00000 
BMOLEN3C MOLEN150     0 0        0.00000 0.00000 0.00000 0.00000 
BMONCE2R MONCE220     0 0        0.00000 0.00000 0.00000 0.00000 
BMONCE31 MONCE150     0 0        44.0131 -7.4561 0.00000 0.00000 
BMONCE33 MONCE150     0 0        0.00000 0.00000 0.00000 0.00000 
BMONTI31 MONTI150     0 0        31.3198 5.28436 0.00000 0.00000 
BMORTS31 MORTS150     0 0        19.2623 -2.2359 0.00000 0.00000 
BMORTS32 MORTS150     0 0        9.67390 0.16007 0.00000 0.00000 
BMOUSC30 MOUSC 10     0 0        27.6332 12.8685 -12.556 -1.2541 
BMOUSC31 MOUSC150     0 0        0.00000 0.00000 0.00000 0.00000 
BMOUSC32 MOUSC150     0 0        62.2925 -56.537 0.00000 0.00000 
BMOUSC33 MOUSC150     0 0        0.00000 0.00000 0.00000 0.00000 
BMZLR+32 MZLR+150     0 0        0.00000 0.00000 0.00000 0.00000 
BMZLR+3R MZLR+150     0 0        0.00000 0.00000 0.00000 0.00000 
BNDOKS31 NDOKS150     0 0        7.38776 -10.792 0.00000 0.00000 
BNDOKS32 NDOKS150     0 0        0.07038 0.45303 0.00000 0.00000 
BNEUVI31 NEUVI150     0 0        12.4319 14.8406 0.00000 0.00000 
BNIEUW31 NIEUW150     0 0        27.5790 7.15106 0.00000 0.00000 
BNIEUW32 NIEUW150     0 0        0.00000 0.00000 -25.400 -5.4504 
BNINO+3R NINO+150     0 0        0.00000 0.00000 0.00000 0.00000 
BNINOV31 NINOV150     0 0        97.3417 29.2459 0.00000 0.00000 
BNINOV32 NINOV150     0 0        16.4277 1.15253 0.00000 0.00000 
BNIVEL31 NIVEL150     0 0        0.03747 0.68247 0.00000 0.00000 
BNIVEL32 NIVEL150     0 0        17.3088 1.91298 0.00000 0.00000 
BNORDL31 NORDL150     0 0        0.00000 0.00000 0.00000 0.00000 
BOBOU+3R OBOU+150     0 0        0.00000 0.00000 0.00000 0.00000 
BOBOUR31 OBOUR150     0 0        33.7935 12.1434 0.00000 0.00000 
BOBOUR32 OBOUR150     0 0        1.41328 0.70312 0.00000 0.00000 
BOELEG32 OELEG150     0 0        9.48482 -0.0200 0.00000 0.00000 
BOELEG3R OELEG150     0 0        8.95210 -0.0558 0.00000 0.00000 
BOISQU31 OISQU150     0 0        85.2802 17.2006 0.00000 0.00000 
BOOSTR31 OOSTR150     0 0        15.4059 5.73474 0.00000 0.00000 
BOS1ST21 OS1ST220     0 0        0.00000 0.00000 0.00000 0.00000 
BOS1ST22 OS1ST220     0 0        0.00000 0.00000 0.00000 0.00000 
BOS2ST21 OS2ST220     0 2 227.73 0.00000 0.00000 -5.3063 75.0000 0.00000 -307.00 75.0000 -75.000 
BOUDNA31 OUDNA150     0 0        21.8660 5.80065 0.00000 0.00000 
BOUDNA32 OUDNA150     0 0        20.4915 1.21578 0.00000 0.00000 
BOVERP31 OVERP150     0 0        28.1345 -38.416 0.00000 0.00000 
BPACHE31 PACHE150     0 0        0.00000 0.00000 0.00000 0.00000 
BPACHE32 PACHE150     0 0        7.46938 1.09603 0.00000 0.00000 
BPEKK+32 PEKK+150     0 0        0.00000 0.00000 0.00000 0.00000 
BPEKK+3R PEKK+150     0 0        0.00000 0.00000 0.00000 0.00000 
BPEMA+32 PEMA+150     0 0        0.00000 0.00000 0.00000 0.00000 
BPEMA+3R PEMA+150     0 0        0.00000 0.00000 0.00000 0.00000 
BPEMA231 PEMA2150     0 0        10.0137 50.3851 0.00000 0.00000 
BPEMA232 PEMA2150     0 0        10.0137 45.3851 0.00000 0.00000 
BPEMAR31 PEMAR150     0 0        29.0877 1.20103 0.00000 0.00000 
BPEMAR3B PEMAR150     0 0        42.7549 2.38110 0.00000 0.00000 
BPETRO31 PETRO150     0 0        34.3014 3.64169 0.00000 0.00000 
BPITEM31 PITEM150     0 0        26.2016 8.53733 0.00000 0.00000 
BPITEM32 PITEM150     0 0        19.8747 7.08454 0.00000 0.00000 
BPLATE31 PLATE150     0 0        0.12535 0.80636 0.00000 0.00000 
BPOEDE32 POEDE150     0 0        21.4894 -1.5126 0.00000 0.00000 
BPOEDE3R POEDE150     0 0        0.00000 0.00000 0.00000 0.00000 
BPONT+3R PONT+150     0 0        0.00000 0.00000 0.00000 0.00000 
BPOPSA30 POPSA150     0 0        18.8730 -2.3280 0.00000 0.00000 
BPORTF31 PORTF150     0 0        0.00000 0.00000 0.00000 0.00000 
BPORTP31 PORTP150     0 0        24.3285 -15.840 0.00000 0.00000 
BPORTP32 PORTP150     0 0        23.6153 -10.030 0.00000 0.00000 
BPRECH31 PRECH150     0 0        60.6482 10.7293 0.00000 0.00000 
BPRECH32 PRECH150     0 0        0.00000 0.00000 0.00000 0.00000 
BPTROC31 PTROC150     0 0        0.03920 1.66333 0.00000 0.00000 
BPTROC32 PTROC150     0 0        13.1481 1.45933 0.00000 0.00000 
BPTRP33A PTRP3150     0 0        8.34214 2.82057 0.00000 0.00000 
BPTRP33B PTRP3150     0 0        2.57373 0.80161 0.00000 0.00000 
BPUTTE31 PUTTE150     0 0        0.02476 0.13635 0.00000 0.00000 
BPUTTE32 PUTTE150     0 0        11.3017 -0.2024 0.00000 0.00000 
BQDEME3R QDEME150     0 0        31.7264 14.1919 0.00000 0.00000 
BQUAR+32 QUAR+150     0 0        0.00000 0.00000 0.00000 0.00000 
BQUAR+3R QUAR+150     0 0        0.00000 0.00000 0.00000 0.00000 
BRELE+3R RELE+150     0 0        0.00000 0.00000 0.00000 0.00000 
BRELEG3R RELEG150     0 0        32.9753 12.1305 0.00000 0.00000 
BRHODE31 RHODE150     0 0        20.8578 20.0427 0.00000 0.00000 
BRIJKE31 RIJKE150     0 0        7.58688 0.17964 0.00000 0.00000 
BRIJKE32 RIJKE150     0 0        0.00000 0.00000 0.00000 0.00000 
BRIMIE1R RIMIE380     0 0        0.00000 0.00000 0.00000 0.00000 
BRIMIE21 RIMIE220     0 0        0.00000 0.00000 0.00000 0.00000 
BRIMIE22 RIMIE220     0 0        0.00000 0.00000 0.00000 0.00000 
BRIMIE28 RIMIE220     0 0        0.00000 0.00000 0.00000 0.00000 
BRINGV31 RINGV150     0 0        0.00000 0.00000 0.00000 0.00000 
BRINGV3W RINGV 24     0 2 156.33 0.00000 0.00000 -378.25 -0.6274 -160.00 -385.00 0.43759 -206.49 
BRODE+1R RODE+380     0 0        0.00000 0.00000 0.00000 0.00000 
BRODEN11 RODEN380     0 0        0.00000 0.00000 0.00000 0.00000 
BRODEN31 RODEN150     0 0        0.00000 0.00000 0.00000 0.00000 
BRODEN33 RODEN150     0 0        0.00000 -81.523 0.00000 0.00000 
BRODEN3W RODEN 20     0 2 156.09 0.00000 0.00000 -205.00 24.4486 -80.000 -205.00 51.0573 -161.76 
BROEVG31 ROEVG150     0 0        50.7903 4.31150 0.00000 0.00000 
BROMSE21 ROMSE220     0 0        52.8149 -40.079 0.00000 0.00000 
BROMSS21 ROMSS220     0 0        3.01628 -2.0660 0.00000 0.00000 
BROMSS22 ROMSS220     0 0        0.04285 0.22643 0.00000 0.00000 
BROUVR21 ROUVR220     0 0        8.31132 -4.0133 0.00000 0.00000 
BRUIEN32 RUIEN150     0 0        16.7488 -78.600 0.00000 0.00000 
BRUIEN33 RUIEN150     0 0        0.00000 0.00000 0.00000 0.00000 
BRUMBE32 RUMBE150     0 0        23.8196 4.76310 0.00000 0.00000 
BRUMBE3R RUMBE150     0 0        23.8317 4.76253 0.00000 0.00000 
BSART 21 SART 220     0 0        27.2221 0.28668 0.00000 0.00000 
BSART+21 SART+220     0 0        0.00000 0.00000 0.00000 0.00000 
BSCARB31 SCARB150     0 0        44.5150 -8.0849 0.00000 0.00000 
BSCARB32 SCARB150     0 0        37.7874 24.2660 0.00000 0.00000 
BSCHD+32 SCHD+150     0 0        0.00000 0.00000 0.00000 0.00000 
BSCHD+3R SCHD+150     0 0        0.00000 0.00000 0.00000 0.00000 
BSCHED31 SCHED150     0 0        35.4640 49.4286 0.00000 0.00000 
BSCHED32 SCHED150     0 0        25.7415 -12.961 0.00000 0.00000 
BSCHEL31 SCHEL150     0 0        31.3972 -36.864 0.00000 0.00000 0.00000 -0.5000 0.53000 -0.5300 
BSCHEL3_ SCHEL150     0 0        0.00000 0.00000 0.00000 0.00000 
BSCHIF23 SCHIF220     0 0        0.00000 0.00000 0.00000 0.00000 
BSCHIF24 SCHIF220     0 0        0.00000 0.00000 0.00000 0.00000 
BSDALE31 SDALE150     0 0        22.4899 7.44503 0.00000 0.00000 
BSEILL31 SEILL150     0 0        13.1951 12.5429 0.00000 0.00000 
BSENO+2R SENO+220     0 0        0.00000 0.00000 0.00000 0.00000 
BSERAI21 SERAI220     0 0        68.0546 -0.4364 0.00000 0.00000 
BSERAI22 SERAI220     0 0        11.5597 18.0859 0.00000 0.00000 
BSIDAL31 SIDAL150     0 0        27.4270 2.00398 0.00000 0.00000 
BSIDMA31 SIDMA150     0 0        0.17392 0.76210 0.00000 0.00000 
BSIDMA32 SIDMA150     0 0        228.157 18.7514 0.00000 0.00000 
BSIKE+32 SIKE+150     0 0        0.00000 0.00000 0.00000 0.00000 
BSIKE+3R SIKE+150     0 0        0.00000 0.00000 0.00000 0.00000 
BSIKEL32 SIKEL150     0 0        5.11307 3.09530 0.00000 0.00000 
BSIKEL3R SIKEL150     0 0        4.80218 3.17472 0.00000 0.00000 
BSJOB 31 SJOB 150     0 0        52.8294 -5.7130 0.00000 0.00000 
BSLAAN31 SLAAN150     0 0        30.8206 5.42899 0.00000 0.00000 
BSLAAN32 SLAAN150     0 0        19.3435 3.43863 0.00000 0.00000 
BSLAAN33 SLAAN150     0 0        0.00000 0.00000 0.00000 0.00000 
BSLAAN34 SLAAN150     0 0        0.00000 0.00000 0.00000 0.00000 
BSLYKE31 SLYKE150     0 0        36.3992 0.00004 0.00000 0.00000 
BSLYKE32 SLYKE150     0 0        20.4880 72.3026 0.00000 0.00000 
BSMARD21 SMARD220     0 0        7.39070 -0.6072 0.00000 0.00000 
BSMARS23 SMARS220     0 0        0.02195 0.14130 0.00000 0.00000 
BSMARS24 SMARS220     0 0        3.46773 -1.3515 0.00000 0.00000 
BSOLAN30 SOLAN150     0 0        184.726 32.3932 0.00000 0.00000 
BSOLAN31 SOLAN150     0 0        0.09314 0.59968 0.00000 0.00000 
BSOLV231 SOLV2150     0 0        0.00000 0.00000 -8.6302 0.35109 
BSOLV33R SOLV3150     0 0        0.00000 0.00000 -11.519 -1.6600 
BSTAD+32 STAD+150     0 0        0.00000 0.00000 0.00000 0.00000 
BSTAD+3R STAD+150     0 0        0.00000 0.00000 0.00000 0.00000 
BSTALE31 STALE150     0 0        33.6609 4.11573 0.00000 0.00000 
BSTALE32 STALE150     0 0        0.00000 0.00000 0.00000 0.00000 
BSTAM+1R STAM+380     0 0        0.00000 0.00000 0.00000 0.00000 
BSTBAV31 STBAV150     0 0        77.0627 39.0919 0.00000 0.00000 
BSTEVN10 STEVN380     0 0        0.00000 0.00000 0.00000 0.00000 
BSTEVN11 STEVN380     0 0        0.00000 0.00000 0.00000 0.00000 
BSTEVN12 STEVN380     0 0        0.00000 0.00000 0.00000 0.00000 
BSTEVN13 STEVN380     0 0        0.00000 0.00000 0.00000 0.00000 
BSTEVN14 STEVN380     0 0        0.00000 0.00000 0.00000 0.00000 
BSTEVN15 STEVN380     0 0        0.00000 0.00000 0.00000 0.00000 
BSTEVN16 STEVN380     0 0        0.00000 0.00000 0.00000 0.00000 
BSTEVN17 STEVN380     0 0        0.00000 0.00000 0.00000 0.00000 
BSTEVN18 STEVN380     0 0        0.00000 0.00000 0.00000 0.00000 
BSTEVN19 STEVN380     0 0        0.00000 0.00000 0.00000 0.00000 
BSTEVN1A STEVN380     0 0        0.00000 0.00000 0.00000 0.00000 
BSTEVN1B STEVN380     0 0        0.20699 129.815 0.00000 0.00000 
BSTEVN21 STEVN220     0 0        0.15314 130.538 0.00000 0.00000 
BSTEVN22 STEVN220     0 0        0.15998 130.538 0.00000 0.00000 
BSTEVN2A STEVN220     0 0        0.15897 130.538 0.00000 0.00000 
BSTEVN2B STEVN220     0 0        0.15525 130.538 0.00000 0.00000 
BSTEVN3R STEVN150     0 0        0.00000 0.00000 0.00000 0.00000 
BSTEVN3S STEVN150     0 0        0.00000 0.00000 0.00000 0.00000 
BSTGIL32 STGIL150     0 0        16.0716 13.0371 0.00000 0.00000 
BSTGIL3R STGIL150     0 0        19.4540 0.49608 0.00000 0.00000 
BSTNIK31 STNIK150     0 0        23.1712 3.77418 0.00000 0.00000 
BSTPAU31 STPAU150     0 0        8.70937 0.15171 0.00000 0.00000 
BSTPAU32 STPAU150     0 0        7.63535 -0.2896 0.00000 0.00000 
BTERGN11 TERGN380     0 0        0.00000 0.00000 0.00000 0.00000 
BTERGN31 TERGN150     0 0        11.0364 -2.1359 0.00000 0.00000 
BTERGN32 TERGN150     0 0        0.00000 0.00000 0.00000 0.00000 
BTERGN3R TERGN150     0 0        0.00000 0.00000 0.00000 0.00000 
BTERL+32 TERL+150     0 0        0.00000 0.00000 0.00000 0.00000 
BTERL+3R TERL+150     0 0        0.00000 0.00000 0.00000 0.00000 
BTERTR3R TERTR150     0 0        24.4910 2.29029 0.00000 0.00000 
BTESSE31 TESSE150     0 0        128.313 80.4760 -10.829 -1.0816 0.00000 -14.500 15.2700 -15.270 
BTESSE32 TESSE150     0 0        0.11777 1.10005 0.00000 0.00000 
BTESSE3W TESSE 19     0 0        0.00000 0.00000 -338.40 -62.075 -240.00 -410.00 66.1908 -159.95 
BTHORN31 THORN150     0 0        0.00000 65.3732 -1.9333 3.06764 -0.7000 -147.60 7.79184 -62.175 
BTHORN32 THORN150     0 0        0.00000 65.4784 -3.1798 5.04548 0.00000 -178.00 10.3541 -75.666 
BTHUIL37 THUIL150     0 0        5.41152 -0.0719 0.00000 0.00000 
BTHYCH3R THYCH150     0 0        11.2719 -3.7259 0.00000 0.00000 
BTIBIS11 TIBIS380     0 0        0.00000 0.00000 0.00000 0.00000 
BTIBIS31 TIBIS150     0 0        0.00000 0.00000 0.00000 0.00000 
BTIELT31 TIELT150     0 0        36.4241 9.38510 0.00000 0.00000 
BTIEN+32 TIEN+150     0 0        0.00000 0.00000 0.00000 0.00000 
BTIEN+3R TIEN+150     0 0        0.00000 0.00000 0.00000 0.00000 
BTIENE32 TIENE150     0 0        79.6423 26.2739 0.00000 0.00000 
BTIENE3R TIENE150     0 0        21.1191 12.3350 0.00000 0.00000 
BTIHA+3R TIHA+150     0 0        0.00000 0.00000 0.00000 0.00000 
BTIHA11N TIHA1380     0 0        0.00000 0.00000 0.00000 0.00000 
BTIHA11S TIHA1380     0 0        0.00000 0.00000 0.00000 0.00000 
BTIHA11V TIHA1 18     0 2 410.29 0.00000 0.00000 -480.90 -44.677 -240.00 -480.90 52.3900 -279.34 
BTIHA11W TIHA1 18     0 2 410.34 0.00000 0.00000 -485.00 -45.553 -240.00 -485.00 52.3900 -279.34 
BTIHA211 TIHA2380     0 0        0.00000 0.00000 0.00000 0.00000 
BTIHA21W TIHA2 24     0 2 409.43 0.00000 0.00000 -1009.5 -65.881 -504.00 -1009.5 103.431 -568.76 
BTIHA311 TIHA3 24     0 2 408.04 0.00000 0.00000 -1037.7 -161.42 -508.00 -1037.7 100.357 -591.03 
BTIHA31W TIHA3380     0 0        0.00000 0.00000 0.00000 0.00000 
BTIHAN31 TIHAN150     0 0        0.34489 0.72144 0.00000 0.00000 
BTIHAN32 TIHAN150     0 0        0.00000 0.00000 0.00000 0.00000 
BTRIVI31 TRIVI150     0 0        0.00000 0.00000 0.00000 0.00000 
BTRIVI32 TRIVI150     0 0        0.00000 0.00000 0.00000 0.00000 
BUMBAL32 UMBAL150     0 0        0.03426 0.33623 0.00000 0.00000 
BUMBAL33 UMBAL150     0 0        49.3711 27.7287 0.00000 0.00000 
BUMBAL3R UMBAL150     0 0        74.3271 49.1722 0.00000 0.00000 
BUMHOB31 UMHOB150     0 0        25.1716 3.55185 0.00000 0.00000 
BUMHOB32 UMHOB150     0 0        0.02739 0.02204 0.00000 0.00000 
BUMOVE32 UMOVE150     0 0        8.04758 1.78077 0.00000 0.00000 
BUMOVE3R UMOVE150     0 0        0.00000 0.00000 0.00000 0.00000 
BVALE+3R VALE+150     0 0        0.00000 0.00000 0.00000 0.00000 
...